Version 4
SHEET 1 1036 996
WIRE 48 128 0 128
WIRE 176 128 128 128
WIRE 0 160 0 128
WIRE 176 224 176 128
WIRE 176 224 -80 224
WIRE 288 224 176 224
WIRE 176 256 176 224
WIRE -80 272 -80 224
WIRE 288 352 288 224
WIRE 176 400 176 336
WIRE 224 400 176 400
WIRE 288 512 288 448
WIRE 176 608 176 400
WIRE -80 656 -80 352
WIRE 112 656 -80 656
WIRE -80 704 -80 656
WIRE 176 784 176 704
WIRE 176 784 -80 784
WIRE 288 784 288 592
WIRE 288 784 176 784
WIRE 176 816 176 784
FLAG 0 160 0
FLAG 176 816 0
SYMBOL npn 112 608 R0
SYMATTR InstName Q1
SYMATTR Value CM2N3904
SYMBOL npn 224 352 R0
SYMATTR InstName Q2
SYMATTR Value CM2N3904
SYMBOL res 160 240 R0
SYMATTR InstName RC
SYMATTR Value 10K
SYMBOL voltage 144 128 R90
WINDOW 0 -32 56 VBottom 2
WINDOW 3 32 56 VTop 2
SYMATTR InstName 15
SYMATTR Value 15
SYMBOL res -96 688 R0
SYMATTR InstName RB2
SYMATTR Value 20000
SYMBOL res -96 256 R0
SYMATTR InstName R3
SYMATTR Value 330K
SYMBOL res 272 496 R0
SYMATTR InstName R5
SYMATTR Value 560
TEXT -336 -200 Left 2 !.include C:\\Program Files\\LTC\\LTspiceXVII\\lib\\sub\\2N2222A.LIB
TEXT -336 -264 Left 2 !.include C:\\Program Files\\LTC\\LTspiceXVII\\lib\\sub\\2N4401.lib
TEXT -336 -320 Left 2 !.include C:\\Program Files\\LTC\\LTspiceXVII\\lib\\sub\\2N3904.LIB
TEXT 376 520 Left 2 ;|   IE2 \n|\nV
TEXT 184 712 Left 2 ;| IB1 \nV
TEXT 144 472 Left 2 ;|   IC1 \n|\nV
TEXT 184 384 Left 2 ;->\nIB2
TEXT 56 632 Left 2 ;->\nIB1
TEXT -338 856 Left 2 !.tran 0 1 0 1m
TEXT 304 232 Left 2 ;|   IC2 \n|\nV
