Version 4
SHEET 1 1484 680
WIRE 144 -128 96 -128
WIRE 240 -128 224 -128
WIRE 464 -128 240 -128
WIRE 96 -96 96 -128
WIRE 384 -80 304 -80
WIRE 304 -32 304 -80
WIRE 304 112 304 48
WIRE 240 128 240 -128
WIRE 272 128 240 128
WIRE 544 144 544 -128
WIRE 544 144 336 144
WIRE -96 160 -144 160
WIRE 32 160 -16 160
WIRE 112 160 32 160
WIRE 224 160 192 160
WIRE 272 160 224 160
WIRE 32 176 32 160
WIRE 224 176 224 160
WIRE -144 224 -144 160
WIRE 304 240 304 176
WIRE 224 272 224 240
WIRE -144 352 -144 304
WIRE 32 368 32 240
WIRE 544 368 544 144
WIRE 544 368 32 368
FLAG 304 320 0
FLAG 384 -80 0
FLAG 224 272 0
FLAG 96 -96 0
FLAG -144 352 0
SYMBOL voltage 304 336 R180
WINDOW 0 24 96 Left 2
WINDOW 3 24 16 Left 2
WINDOW 123 0 0 Left 0
WINDOW 39 0 0 Left 0
SYMATTR InstName V1
SYMATTR Value 15
SYMBOL voltage 304 64 R180
WINDOW 0 24 96 Left 2
WINDOW 3 24 16 Left 2
WINDOW 123 0 0 Left 0
WINDOW 39 0 0 Left 0
SYMATTR InstName V2
SYMATTR Value 15
SYMBOL res 560 -144 R90
WINDOW 0 0 56 VBottom 2
WINDOW 3 32 56 VTop 2
SYMATTR InstName R2
SYMATTR Value 3693.980625
SYMBOL res 240 -144 R90
WINDOW 0 0 56 VBottom 2
WINDOW 3 32 56 VTop 2
SYMATTR InstName R1
SYMATTR Value 6306.019375
SYMBOL res 208 144 R90
WINDOW 0 0 56 VBottom 2
WINDOW 3 32 56 VTop 2
SYMATTR InstName RB
SYMATTR Value 10k
SYMBOL res 0 144 R90
WINDOW 0 0 56 VBottom 2
WINDOW 3 32 56 VTop 2
SYMATTR InstName RA
SYMATTR Value 10k
SYMBOL cap 208 176 R0
SYMATTR InstName C1
SYMATTR Value 1.591549n
SYMBOL cap 16 176 R0
SYMATTR InstName C2
SYMATTR Value 1.591549n
SYMBOL voltage -144 208 R0
WINDOW 123 24 146 Left 2
WINDOW 39 0 0 Left 0
SYMATTR InstName Vi
SYMATTR Value ""
SYMATTR Value2 AC 1m
SYMBOL OpAmps\\opamp2 304 80 R0
SYMATTR InstName U1
SYMATTR Value CMUA741
TEXT 72 -216 Left 2 !.include C:\\Program Files\\LTC\\LTspiceXVII\\lib\\sub\\CMUA741.MOD
TEXT 544 144 Left 2 ;Vo
TEXT 720 176 Left 2 !.ac dec 10 100 0.1G
