Version 4
SHEET 1 1288 680
SYMBOL npn 784 400 R0
SYMATTR InstName Q1
SYMATTR Value 2N3904
TEXT -56 64 Left 2 !.include C:\\Program Files\\LTC\\LTspiceXVII\\lib\\sub\\2N3904.LIB
