Version 4
SHEET 1 1600 680
WIRE 160 96 32 96
WIRE 336 96 240 96
WIRE 464 96 400 96
WIRE 592 96 464 96
WIRE 720 96 592 96
WIRE 1104 96 912 96
WIRE 1296 96 1104 96
WIRE 1360 96 1296 96
WIRE 1520 96 1520 80
WIRE 1520 96 1424 96
WIRE 592 128 592 96
WIRE 1248 128 592 128
WIRE 32 144 32 96
WIRE 464 144 464 96
WIRE 592 144 592 128
WIRE 1296 160 1296 96
WIRE 1520 160 1520 96
WIRE 1104 192 1104 96
WIRE 1200 208 1152 208
WIRE 1200 224 1200 208
WIRE 1248 256 1248 128
WIRE 1248 256 1152 256
WIRE 464 272 464 208
WIRE 1296 272 1296 240
WIRE 32 304 32 224
WIRE 592 304 592 224
WIRE 1520 304 1520 240
WIRE 1104 352 1104 272
FLAG 464 272 0
FLAG 592 304 0
FLAG 1104 352 0
FLAG 1296 272 0
FLAG 1520 304 0
FLAG 1200 224 0
FLAG 32 304 0
FLAG 592 96 V1
FLAG 1104 96 V2
FLAG 1520 80 Vo
SYMBOL voltage 32 128 R0
WINDOW 123 24 146 Left 2
WINDOW 39 0 0 Left 0
SYMATTR InstName Vs
SYMATTR Value ""
SYMATTR Value2 AC 1
SYMBOL res 256 80 R90
WINDOW 0 0 56 VBottom 2
WINDOW 3 32 56 VTop 2
SYMATTR InstName R1
SYMATTR Value 50
SYMBOL res 576 128 R0
SYMATTR InstName R2
SYMATTR Value 1k
SYMBOL g 1104 288 R180
SYMATTR InstName G1
SYMATTR Value 0.1
SYMBOL res 1280 144 R0
SYMATTR InstName R3
SYMATTR Value 4k
SYMBOL res 1504 144 R0
SYMATTR InstName R4
SYMATTR Value 4k
SYMBOL cap 400 80 R90
WINDOW 0 0 32 VBottom 2
WINDOW 3 32 32 VTop 2
SYMATTR InstName C1
SYMATTR Value 1µ
SYMBOL cap 1424 80 R90
WINDOW 0 0 32 VBottom 2
WINDOW 3 32 32 VTop 2
SYMATTR InstName C4
SYMATTR Value 1µ
TEXT -26 552 Left 2 !.ac dec 10 0.1 1T
